validation_cases/use_cases/uc1/check_live3_pglib_opf_case5_pjm.powermodels.json
{
    "ac": true,
    "baseMVA": 100,
    "branch": {
        "1": {
            "angmax": 1.0471975511965976,
            "angmin": -1.0471975511965976,
            "b_fr": 0.00356,
            "b_to": 0.00356,
            "br_r": 0.00281,
            "br_status": 1,
            "br_x": 0.0281,
            "f_bus": 1,
            "g_fr": 0.0,
            "g_to": 0.0,
            "index": 1,
            "rate_a": 4.000000000000001,
            "rate_b": 0.0,
            "rate_c": 0.0,
            "shift": 0.0,
            "t_bus": 2,
            "tap": 1.0,
            "transformer": false
        },
        "2": {
            "angmax": 1.0471975511965976,
            "angmin": -1.0471975511965976,
            "b_fr": 0.003290000000000001,
            "b_to": 0.003290000000000001,
            "br_r": 0.00304,
            "br_status": 1,
            "br_x": 0.030400000000000003,
            "f_bus": 1,
            "g_fr": 0.0,
            "g_to": 0.0,
            "index": 2,
            "rate_a": 4.26,
            "rate_b": 0.0,
            "rate_c": 0.0,
            "shift": 0.0,
            "t_bus": 4,
            "tap": 1.0,
            "transformer": false
        },
        "3": {
            "angmax": 1.0471975511965976,
            "angmin": -1.0471975511965976,
            "b_fr": 0.015630000000000005,
            "b_to": 0.015630000000000005,
            "br_r": 0.00064,
            "br_status": 1,
            "br_x": 0.0063999999999999994,
            "f_bus": 1,
            "g_fr": 0.0,
            "g_to": 0.0,
            "index": 3,
            "rate_a": 4.26,
            "rate_b": 0.0,
            "rate_c": 0.0,
            "shift": 0.0,
            "t_bus": 5,
            "tap": 1.0,
            "transformer": false
        },
        "4": {
            "angmax": 1.0471975511965976,
            "angmin": -1.0471975511965976,
            "b_fr": 0.00926,
            "b_to": 0.00926,
            "br_r": 0.00108,
            "br_status": 1,
            "br_x": 0.0108,
            "f_bus": 2,
            "g_fr": 0.0,
            "g_to": 0.0,
            "index": 4,
            "rate_a": 4.26,
            "rate_b": 0.0,
            "rate_c": 0.0,
            "shift": 0.0,
            "t_bus": 3,
            "tap": 1.0,
            "transformer": false
        },
        "5": {
            "angmax": 1.0471975511965976,
            "angmin": -1.0471975511965976,
            "b_fr": 0.0033700000000000006,
            "b_to": 0.0033700000000000006,
            "br_r": 0.00297,
            "br_status": 1,
            "br_x": 0.0297,
            "f_bus": 3,
            "g_fr": 0.0,
            "g_to": 0.0,
            "index": 5,
            "rate_a": 4.26,
            "rate_b": 0.0,
            "rate_c": 0.0,
            "shift": 0.0,
            "t_bus": 4,
            "tap": 1.0,
            "transformer": false
        },
        "6": {
            "angmax": 1.0471975511965976,
            "angmin": -1.0471975511965976,
            "b_fr": 0.0033700000000000006,
            "b_to": 0.0033700000000000006,
            "br_r": 0.00297,
            "br_status": 1,
            "br_x": 0.0297,
            "f_bus": 4,
            "g_fr": 0.0,
            "g_to": 0.0,
            "index": 6,
            "rate_a": 2.4,
            "rate_b": 0.0,
            "rate_c": 0.0,
            "shift": 0.0,
            "t_bus": 5,
            "tap": 1.0,
            "transformer": false
        }
    },
    "bus": {
        "1": {
            "base_kv": 230.0,
            "bus_i": 1,
            "bus_type": 2,
            "index": 1,
            "va": 0.0,
            "vm": 1.0,
            "vmax": 1.1,
            "vmin": 0.9,
            "zone": 1
        },
        "2": {
            "base_kv": 230.0,
            "bus_i": 2,
            "bus_type": 1,
            "index": 2,
            "va": 0.0,
            "vm": 1.0,
            "vmax": 1.1,
            "vmin": 0.9,
            "zone": 1
        },
        "3": {
            "base_kv": 230.0,
            "bus_i": 3,
            "bus_type": 2,
            "index": 3,
            "va": 0.0,
            "vm": 1.0,
            "vmax": 1.1,
            "vmin": 0.9,
            "zone": 1
        },
        "4": {
            "base_kv": 230.0,
            "bus_i": 4,
            "bus_type": 3,
            "index": 4,
            "va": 0.0,
            "vm": 1.0,
            "vmax": 1.1,
            "vmin": 0.9,
            "zone": 1
        },
        "5": {
            "base_kv": 230.0,
            "bus_i": 5,
            "bus_type": 2,
            "index": 5,
            "va": 0.0,
            "vm": 1.0,
            "vmax": 1.1,
            "vmin": 0.9,
            "zone": 1
        }
    },
    "correct_pm_network_data": true,
    "dcline": {},
    "gen": {
        "1": {
            "cost": [
                0.0,
                4000.0,
                0.0
            ],
            "gen_bus": 4,
            "gen_status": 1,
            "index": 1,
            "model": 2,
            "ncost": 3,
            "pg": 0.0,
            "pmax": 2.0000000001,
            "pmin": -1e-10,
            "qg": 0.0,
            "qmax": 1.5000000001,
            "qmin": -1.5000000001,
            "shutdown": 0.0,
            "startup": 0.0,
            "vg": 1.0
        },
        "2": {
            "cost": [
                0.0,
                1400.0,
                0.0
            ],
            "gen_bus": 1,
            "gen_status": 1,
            "index": 2,
            "model": 2,
            "ncost": 3,
            "pg": 0.2,
            "pmax": 0.40000000010000003,
            "pmin": -1e-10,
            "qg": 0.0,
            "qmax": 0.3000000001,
            "qmin": -0.3000000001,
            "shutdown": 0.0,
            "startup": 0.0,
            "vg": 1.0
        },
        "3": {
            "cost": [
                0.0,
                3000.0,
                0.0
            ],
            "gen_bus": 3,
            "gen_status": 1,
            "index": 3,
            "model": 2,
            "ncost": 3,
            "pg": 2.6,
            "pmax": 5.2000000001,
            "pmin": -1e-10,
            "qg": 0.0,
            "qmax": 3.9000000001,
            "qmin": -3.9000000001,
            "shutdown": 0.0,
            "startup": 0.0,
            "vg": 1.0
        },
        "4": {
            "cost": [
                0.0,
                1000.0,
                0.0
            ],
            "gen_bus": 5,
            "gen_status": 1,
            "index": 4,
            "model": 2,
            "ncost": 3,
            "pg": 3.0,
            "pmax": 6.0000000001,
            "pmin": -1e-10,
            "qg": 0.0,
            "qmax": 4.5000000001,
            "qmin": -4.5000000001,
            "shutdown": 0.0,
            "startup": 0.0,
            "vg": 1.0
        },
        "5": {
            "cost": [
                0.0,
                1500.0,
                0.0
            ],
            "gen_bus": 1,
            "gen_status": 1,
            "index": 5,
            "model": 2,
            "ncost": 3,
            "pg": 0.85,
            "pmax": 1.7000000001000002,
            "pmin": -1e-10,
            "qg": 0.0,
            "qmax": 1.2750000001,
            "qmin": -1.2750000001,
            "shutdown": 0.0,
            "startup": 0.0,
            "vg": 1.0
        }
    },
    "load": {
        "1": {
            "index": 1,
            "load_bus": 2,
            "pd": 3.0,
            "qd": 0.9861,
            "status": 1
        },
        "2": {
            "index": 2,
            "load_bus": 3,
            "pd": 3.0,
            "qd": 0.9861,
            "status": 1
        },
        "3": {
            "index": 3,
            "load_bus": 4,
            "pd": 4.0,
            "qd": 1.3147,
            "status": 1
        }
    },
    "name": "",
    "ne_branch": {},
    "per_unit": true,
    "pm_log_level": 0,
    "pm_mip_solver": "cbc",
    "pm_mip_time_limit": Infinity,
    "pm_model": "ACPPowerModel",
    "pm_nl_solver": "ipopt",
    "pm_nl_time_limit": Infinity,
    "pm_solver": "ipopt",
    "pm_time_limit": Infinity,
    "pm_tol": 1e-08,
    "shunt": {},
    "silence": true,
    "source_version": "2.0.0",
    "sourcetype": "matpower",
    "storage": {},
    "switch": {},
    "user_defined_params": {
        "gen_and_controllable_sgen": {
            "2": 2,
            "3": 3,
            "4": 4,
            "5": 5
        }
    }
}